OPT_V10/Two_days_first_run/powerflow_results_t1.txt
Pandapower Network Debug Info
==================================================

BUS:
       vm_pu  va_degree          p_mw    q_mvar
0   0.998809   0.388464 -1.799194e-03  0.001015
1   0.998447   0.637022 -1.965297e-03  0.001654
2   0.997304   0.851762 -1.221618e-03  0.003173
3   0.996931   0.567535 -5.214386e-04  0.004254
4   0.995653   0.409847 -3.750366e-04  0.004243
5   0.996292   0.432136  3.545964e-04  0.007192
6   0.997488   0.563366 -2.122044e-03  0.000960
7   0.999960   0.131351 -1.617106e-03  0.001954
8   0.999253   0.092010 -1.504550e-03  0.002925
9   0.999925   0.005056 -2.963264e-08  0.009022
10  0.999928   0.004877 -1.550449e-07  0.008395
11  0.999934   0.004389  3.791496e-03  0.011560
12  0.999898   0.007025 -2.045877e-03  0.006349
13  0.999881   0.007489  2.194311e-03  0.008027
14  0.999885   0.007312  6.831944e-03  0.013206
15  0.999971   0.002327  0.000000e+00  0.000000
16  0.999971   0.002333  0.000000e+00  0.000000
17  0.999899   0.006867  0.000000e+00  0.000000
18  0.999899   0.006878  0.000000e+00  0.000000
19  1.000000   0.000000  1.588460e-03 -0.044158
20  1.000000   0.000006  0.000000e+00  0.000000
21  1.000000   0.000000 -1.837541e-03 -0.049935
22  1.000000   0.000007  0.000000e+00  0.000000
--------------------------------------------------

LINE:
       p_from_mw  q_from_mvar       p_to_mw  q_to_mvar         pl_mw       ql_mvar  i_from_ka   i_to_ka      i_ka  vm_from_pu  va_from_degree  vm_to_pu  va_to_degree  loading_percent
0  -1.598465e-03     0.040158  1.600044e-03  -0.040157  1.579898e-06  1.231872e-06   0.001547  0.001547  0.001547    1.000000        0.000006  0.999971      0.002327         0.672567
1   1.827536e-03     0.045935 -1.821851e-03  -0.045930  5.684599e-06  4.432375e-06   0.001769  0.001769  0.001769    1.000000        0.000007  0.999899      0.006867         0.769316
2   3.792669e-03     0.028978 -3.791488e-03  -0.028977  1.181578e-06  9.212960e-07   0.001125  0.001125  0.001125    0.999971        0.002327  0.999934      0.004389         0.489097
3  -2.045862e-03     0.006349  2.045877e-03  -0.006349  1.538877e-08  1.199888e-08   0.000257  0.000257  0.000257    0.999899        0.006867  0.999898      0.007025         0.111634
4   9.026580e-03     0.021232 -9.026289e-03  -0.021232  2.911116e-07  2.269845e-07   0.000888  0.000888  0.000888    0.999899        0.006867  0.999885      0.007312         0.386134
5  -5.402714e-03     0.010178  5.464827e-03  -0.010130  6.211245e-05  4.843010e-05   0.016633  0.016633  0.016633    0.999971        0.002333  0.998809      0.388464         7.231821
6  -1.708282e-03     0.008198  1.762702e-03  -0.008156  5.442061e-05  4.243265e-05   0.012089  0.012089  0.012089    0.999899        0.006878  0.996292      0.432136         5.255978
7  -1.612759e-03     0.001958  1.617106e-03  -0.001954  4.347273e-06  3.389640e-06   0.003661  0.003661  0.003661    0.999899        0.006878  0.999960      0.131351         1.591889
8  -1.847827e-03     0.007194  1.857313e-03  -0.007186  9.486433e-06  7.396728e-06   0.010721  0.010721  0.010721    0.999899        0.006878  0.999253      0.092010         4.661414
9  -1.478095e-09     0.009022  2.963236e-08  -0.009022  2.815426e-08  2.195234e-08   0.000347  0.000347  0.000347    0.999928        0.004877  0.999925      0.005056         0.150996
10 -8.136386e-09     0.017417  1.565228e-07  -0.017417  1.483864e-07  1.156993e-07   0.000670  0.000670  0.000670    0.999934        0.004389  0.999928      0.004877         0.291496
11  2.194345e-03     0.008027 -2.194311e-03  -0.008027  3.387125e-08  2.640997e-08   0.000320  0.000320  0.000320    0.999885        0.007312  0.999881      0.007489         0.139268
12  3.176401e-03    -0.004836 -3.156535e-03   0.004851  1.986588e-05  1.548976e-05   0.008364  0.008364  0.008364    0.998447        0.637022  0.998809      0.388464         3.636489
13  5.214384e-04    -0.004254 -5.090961e-04   0.004264  1.234231e-05  9.623506e-06   0.006206  0.006206  0.006206    0.996931        0.567535  0.998809      0.388464         2.698138
14  1.221617e-03    -0.003173 -1.211103e-03   0.003181  1.051458e-05  8.198394e-06   0.004921  0.004921  0.004921    0.997304        0.851762  0.998447      0.637022         2.139542
15 -3.527626e-04     0.004261  3.750369e-04  -0.004243  2.227425e-05  1.736760e-05   0.006176  0.006176  0.006176    0.999253        0.092010  0.995653      0.409847         2.685046
16  2.122044e-03    -0.000960 -2.117298e-03   0.000964  4.746339e-06  3.700798e-06   0.003370  0.003370  0.003370    0.997488        0.563366  0.996292      0.432136         1.465265
--------------------------------------------------

TRAFO:
    p_hv_mw  q_hv_mvar   p_lv_mw  q_lv_mvar    pl_mw  ql_mvar   i_hv_ka   i_lv_ka  vm_hv_pu  va_hv_degree  vm_lv_pu  va_lv_degree  loading_percent
0 -0.005393   0.011178  0.005403  -0.010178  0.00001    0.001  0.000478  0.016633  0.999971      0.002327  0.999971      0.002333         0.124115
1 -0.005159   0.018349  0.005169  -0.017350  0.00001    0.001  0.000734  0.026132  0.999899      0.006867  0.999899      0.006878         0.190627
2 -0.001588   0.044158  0.001598  -0.040158  0.00001    0.004  0.000364  0.001547  1.000000      0.000000  1.000000      0.000006         0.110466
3  0.001838   0.049935 -0.001828  -0.045935  0.00001    0.004  0.000412  0.001769  1.000000      0.000000  1.000000      0.000007         0.124921
--------------------------------------------------
